

<routes xmlns:xsi="http://www.w3.org/2001/XMLSchema-instance" xsi:noNamespaceSchemaLocation="http://sumo.dlr.de/xsd/routes_file.xsd">
    
    <vType accel="1.0" decel="5.0" id="Car" length="12.0" maxSpeed="50.0" sigma="0.0"/>
    <vType accel="1.0" decel="5.0" id="Bus" length="20.0" maxSpeed="10.0" sigma="0.0"/>
    
    <route id="route_0" edges="32695337#3 32695337#4 32695337#5 32695337#6 561109442 527769689 81460383#0 81460383#1 527769699#0 527769699#1 527769699#2" color="blue"/>
    <route id="route_1" edges="32695337#3 32695337#4 32695337#5 32695337#6 561109442 527769688 -537198009#2 -537198009#1" color="blue"/>
    
    <route id="route_2" edges="537198006#0 537198006#1 537198006#2 130889358 130889390#2 130889390#3" color="blue"/>
   
    <route id="route_3" edges="32695337#3 32695337#4 32695337#5 32695337#6 559553102 -553265819#1" color="blue"/>
    <route id="route_4" edges="32695337#3 32695337#4 32695337#5 32695337#6 561109442 527769689 500478327#0 53010953#0" color="blue"/>
    <route id="route_5" edges="32695337#3 32695337#4 32695337#5 32695337#6 561109442 527769689 81460383#0 81460383#1 527769699#0 -527769693 -52325582#6 -52325582#5 -52325582#4" color="blue"/>
    <route id="route_6" edges="32695337#3 32695337#4 32695337#5 32695337#6 561109442 527769689 81460383#0 553272121 -515622705#2" color="blue"/>
    <route id="route_7" edges="32695337#3 32695337#4 32695337#5 32695337#6 561109442 527769689 81460383#0 81460383#1 527769699#0 53138363#0" color="blue"/>
    
    
    <vehicle id="vehicle_001" type="Bus" depart="30" route="route_0" color="green"/>
    <vehicle id="vehicle_002" type="Car" depart="30" route="route_0" color="yellow"/>
    <vehicle id="vehicle_003" type="Car" depart="30" route="route_0" color="yellow"/>
    <vehicle id="vehicle_004" type="Car" depart="30" route="route_0" color="yellow"/>
    <vehicle id="vehicle_005" type="Car" depart="30" route="route_0" color="yellow"/>
    <vehicle id="vehicle_006" type="Car" depart="30" route="route_0" color="yellow"/>
    
    <!--Sandro inicia-->
    <route id="route_23" edges="120392570#1 120392570#2 109595997#0 109595997#1 53010953#0" color="blue"/>
    <route id="route_24" edges="120392570#1 -52325582#6 -52325582#5 -52325582#4" color="blue"/>
    <route id="route_25" edges="120392570#1 120392570#2 109595997#0 109595997#1 500478327#1 559553102 -553265819#1" color="blue"/>
    <route id="route_26" edges="120392570#1 120392570#2 109595997#0 109595997#1 500478327#1 561109442 527769688 -537198009#2 -537198009#1" color="blue"/>
    <route id="route_27" edges="120392570#1 120392570#2 109595997#0 109595997#1 500478327#1 561109442 527769689 81460383#0 81460383#1 527769699#0 527769699#1 527769699#2" color="blue"/>
    
    <vehicle id="vehicle_400" type="Bus" depart="1" route="route_23" color="green"/>
    
    <vehicle id="vehicle_401" type="Car" depart="10" route="route_24" color="white"/>
    <vehicle id="vehicle_402" type="Car" depart="30" route="route_26" color="yellow"/>
    <vehicle id="vehicle_403" type="Car" depart="50" route="route_23" color="yellow"/>
    <vehicle id="vehicle_404" type="Car" depart="50" route="route_25" color="white"/>
    <vehicle id="vehicle_405" type="Car" depart="80" route="route_23" color="white"/>
    <vehicle id="vehicle_406" type="Car" depart="100" route="route_27" color="white"/>
    <vehicle id="vehicle_407" type="Car" depart="130" route="route_26" color="white"/>
    <vehicle id="vehicle_408" type="Car" depart="140" route="route_23" color="yellow"/>
    <vehicle id="vehicle_409" type="Car" depart="160" route="route_23" color="yellow"/>
    <vehicle id="vehicle_410" type="Car" depart="160" route="route_25" color="white"/>
    <vehicle id="vehicle_411" type="Car" depart="160" route="route_23" color="yellow"/>
    
    <vehicle id="vehicle_412" type="Bus" depart="200" route="route_23" color="green"/>
    
    <vehicle id="vehicle_413" type="Car" depart="220" route="route_24" color="white"/>
    <vehicle id="vehicle_414" type="Car" depart="250" route="route_23" color="white"/>
    <vehicle id="vehicle_415" type="Car" depart="260" route="route_26" color="yellow"/>
    <vehicle id="vehicle_416" type="Car" depart="270" route="route_23" color="white"/>
    <vehicle id="vehicle_417" type="Car" depart="290" route="route_23" color="yellow"/>
    <vehicle id="vehicle_418" type="Car" depart="300" route="route_25" color="white"/>
    <vehicle id="vehicle_419" type="Car" depart="300" route="route_23" color="yellow"/>
    <vehicle id="vehicle_420" type="Car" depart="300" route="route_26" color="yellow"/>
    <vehicle id="vehicle_421" type="Car" depart="300" route="route_23" color="white"/>
    
    <vehicle id="vehicle_422" type="Car" depart="320" route="route_23" color="yellow"/>
    <vehicle id="vehicle_423" type="Car" depart="350" route="route_25" color="white"/>
    <vehicle id="vehicle_424" type="Car" depart="370" route="route_23" color="white"/>
    <vehicle id="vehicle_425" type="Car" depart="370" route="route_26" color="white"/>
    <vehicle id="vehicle_426" type="Car" depart="370" route="route_23" color="yellow"/>    
    <vehicle id="vehicle_427" type="Car" depart="370" route="route_27" color="white"/>
    <vehicle id="vehicle_428" type="Car" depart="380" route="route_25" color="yellow"/>
    
    <vehicle id="vehicle_429" type="Bus" depart="400" route="route_23" color="green"/>
    
    <vehicle id="vehicle_430" type="Car" depart="420" route="route_25" color="yellow"/>
    <vehicle id="vehicle_431" type="Car" depart="460" route="route_26" color="white"/>
    <vehicle id="vehicle_432" type="Car" depart="460" route="route_23" color="yellow"/>
    <vehicle id="vehicle_433" type="Car" depart="490" route="route_24" color="white"/>
    <vehicle id="vehicle_434" type="Car" depart="490" route="route_23" color="yellow"/>
    <!--Sandro termina-->
</routes>
